<?xml version="1.0" encoding="UTF-8"?>
<routes xmlns:xsi="http://www.w3.org/2001/XMLSchema-instance" xsi:noNamespaceSchemaLocation="http://sumo.dlr.de/xsd/routes_file.xsd">
    <vType id="car" vClass="passenger" accel="2.6" decel="4.5" sigma="0.5" length="5" maxSpeed="13.89" imgFile="car_icon.png"/>

    <route id="north_to_south" edges="north_in west_out west_in south_out"/>
    <route id="south_to_north" edges="south_in west_out west_in north_out"/>
    <route id="east_to_west" edges="east_in north_out north_in west_out"/>
    <route id="west_to_east" edges="west_in south_out south_in east_out"/>
    <route id="north_to_east" edges="north_in south_out south_in east_out"/>
    <route id="north_to_west" edges="north_in west_out"/>
    <route id="south_to_east" edges="south_in north_out north_in east_out"/>
    <route id="south_to_west" edges="south_in north_out north_in west_out"/>
    <route id="east_to_north" edges="east_in south_out south_in north_out"/>
    <route id="east_to_south" edges="east_in south_out"/>
    <route id="west_to_north" edges="west_in south_out south_in north_out"/>
    <route id="west_to_south" edges="west_in north_out north_in south_out"/>

    <flow id="north_south_flow" type="car" route="north_to_south" begin="0" end="300" period="50"/>
    <flow id="south_north_flow" type="car" route="south_to_north" begin="0" end="300" period="50"/>
    <flow id="east_west_flow" type="car" route="east_to_west" begin="0" end="300" period="50"/>
    <flow id="west_east_flow" type="car" route="west_to_east" begin="0" end="300" period="50"/>
    <flow id="north_east_flow" type="car" route="north_to_east" begin="0" end="300" period="50"/>
    <flow id="north_west_flow" type="car" route="north_to_west" begin="0" end="300" period="50"/>
    <flow id="south_east_flow" type="car" route="south_to_east" begin="0" end="300" period="50"/>
    <flow id="south_west_flow" type="car" route="south_to_west" begin="0" end="300" period="50"/>
    <flow id="east_north_flow" type="car" route="east_to_north" begin="0" end="300" period="50"/>
    <flow id="east_south_flow" type="car" route="east_to_south" begin="0" end="300" period="50"/>
    <flow id="west_north_flow" type="car" route="west_to_north" begin="0" end="300" period="50"/>
    <flow id="west_south_flow" type="car" route="west_to_south" begin="0" end="300" period="50"/>
</routes>